tests/fuzzer/corpus_json/21_random_036.json
{
  "version": "1.0",
  "type": "input",
  "is_batch": false,
  "attributes": {},
  "data": {
    "node": [
      {
        "id": 0,
        "u_rated": 230.0
      },
      {
        "id": 1,
        "u_rated": 230.0
      },
      {
        "id": 2,
        "u_rated": 230.0
      },
      {
        "id": 3,
        "u_rated": 230.0
      },
      {
        "id": 4,
        "u_rated": 230.0
      },
      {
        "id": 5,
        "u_rated": 230.0
      },
      {
        "id": 6,
        "u_rated": 230.0
      }
    ],
    "source": [
      {
        "id": 7,
        "node": 0,
        "status": 1,
        "u_ref": 1.0918495070954692,
        "u_ref_angle": 0.0,
        "sk": 983215595.1846204,
        "rx_ratio": 0.4591622200212863,
        "z01_ratio": 1.0
      }
    ],
    "line": [
      {
        "id": 8,
        "from_node": 0,
        "to_node": 1,
        "from_status": 1,
        "to_status": 1,
        "r1": 4.375333118386357,
        "x1": 0.0020138734027191907,
        "c1": 6.269890530143344e-07,
        "tan1": 0.0,
        "r0": 0.3,
        "x0": 0.3,
        "c0": 1e-09,
        "tan0": 0.0,
        "i_n": 255.16621929943935
      },
      {
        "id": 9,
        "from_node": 1,
        "to_node": 2,
        "from_status": 1,
        "to_status": 1,
        "r1": 3.652222292585483,
        "x1": 2.1619472788465672,
        "c1": 5.600881671017947e-07,
        "tan1": 0.0,
        "r0": 0.3,
        "x0": 0.3,
        "c0": 1e-09,
        "tan0": 0.0,
        "i_n": 547.3473146332169
      },
      {
        "id": 10,
        "from_node": 2,
        "to_node": 3,
        "from_status": 1,
        "to_status": 1,
        "r1": 2.8808099183384273,
        "x1": 4.1367057893428765,
        "c1": 9.815468966212772e-07,
        "tan1": 0.0,
        "r0": 0.3,
        "x0": 0.3,
        "c0": 1e-09,
        "tan0": 0.0,
        "i_n": 352.0923229213836
      },
      {
        "id": 11,
        "from_node": 3,
        "to_node": 4,
        "from_status": 1,
        "to_status": 1,
        "r1": 4.030506029562536,
        "x1": 4.446320468310657,
        "c1": 3.920708311174756e-07,
        "tan1": 0.0,
        "r0": 0.3,
        "x0": 0.3,
        "c0": 1e-09,
        "tan0": 0.0,
        "i_n": 132.22271374611307
      },
      {
        "id": 12,
        "from_node": 4,
        "to_node": 5,
        "from_status": 1,
        "to_status": 1,
        "r1": 2.486938823074118,
        "x1": 3.8232811988720075,
        "c1": 5.241956434720472e-07,
        "tan1": 0.0,
        "r0": 0.3,
        "x0": 0.3,
        "c0": 1e-09,
        "tan0": 0.0,
        "i_n": 192.62015303077854
      },
      {
        "id": 13,
        "from_node": 5,
        "to_node": 6,
        "from_status": 1,
        "to_status": 1,
        "r1": 3.5273504850751545,
        "x1": 1.6226585847614738,
        "c1": 8.862404864225237e-07,
        "tan1": 0.0,
        "r0": 0.3,
        "x0": 0.3,
        "c0": 1e-09,
        "tan0": 0.0,
        "i_n": 176.8088913942172
      }
    ],
    "sym_load": [
      {
        "id": 14,
        "node": 1,
        "status": 1,
        "type": 1,
        "p_specified": 80139.56246516985,
        "q_specified": -108.19224437764024
      },
      {
        "id": 15,
        "node": 3,
        "status": 1,
        "type": 1,
        "p_specified": 60680.2675249601,
        "q_specified": 7356.090917377453
      }
    ]
  }
}